fbs/tests/IEEE_37_feeder_UB/37_allwye_noxfm_noreg_fbs_out.txt
============================= test session starts ==============================
platform darwin -- Python 3.8.5, pytest-6.0.1, py-1.9.0, pluggy-0.13.1
rootdir: /Users/elainelaguerta/Dropbox/LBNL/LinDist3Flow/fbs
plugins: cov-2.10.1
collected 1 item

fbs/tests/test_compare_opendss.py 

Testing File: /Users/elainelaguerta/Dropbox/LBNL/python-powerflow/IEEE_37_feeder_UB/IEEE_37_Bus_allwye_noxfm_noreg.dss

Opendss Iterations: 3	Opendss Convergence: 0.0001
FBS iterations: 7	 FBS convergence:3.676858328067107e-10	 FBS tolerance: 1e-09


COMPARE V
Max |diff|:
A.(fbs - dss)   0.0008
B.(fbs - dss)   0.0002
C.(fbs - dss)   0.0002
dtype: float64
            A.(fbs - dss)   B.(fbs - dss)   C.(fbs - dss)
sourcebus  0.0000+0.0000j  0.0000-0.0000j -0.0000+0.0000j
701       -0.0001+0.0000j  0.0000+0.0000j -0.0000-0.0000j
702       -0.0002+0.0000j  0.0000+0.0000j -0.0000-0.0000j
705       -0.0002+0.0000j  0.0000+0.0000j -0.0000-0.0000j
713       -0.0002+0.0000j  0.0000+0.0000j -0.0000-0.0000j
703       -0.0003+0.0000j  0.0000+0.0000j -0.0001-0.0000j
727       -0.0003+0.0000j  0.0000+0.0000j -0.0001-0.0000j
730       -0.0004+0.0000j -0.0000+0.0001j -0.0001-0.0000j
704       -0.0002+0.0000j  0.0000+0.0000j -0.0000-0.0000j
714       -0.0002+0.0000j  0.0000+0.0000j -0.0000-0.0000j
720       -0.0002+0.0000j  0.0000+0.0000j -0.0000-0.0000j
742       -0.0002+0.0000j  0.0000+0.0000j -0.0000-0.0000j
712       -0.0002+0.0000j  0.0000+0.0000j -0.0000-0.0000j
706       -0.0002+0.0000j  0.0000+0.0000j -0.0000-0.0000j
725       -0.0002+0.0000j  0.0000+0.0000j -0.0000-0.0000j
707       -0.0002+0.0000j  0.0000+0.0000j -0.0000-0.0000j
724       -0.0002+0.0000j  0.0000+0.0000j -0.0000-0.0000j
722       -0.0002+0.0000j  0.0000+0.0000j -0.0000-0.0000j
708       -0.0005+0.0000j -0.0000+0.0001j -0.0001-0.0000j
733       -0.0006+0.0000j -0.0001+0.0001j -0.0001-0.0000j
732       -0.0005+0.0000j -0.0000+0.0001j -0.0001-0.0000j
709       -0.0004+0.0000j -0.0000+0.0001j -0.0001-0.0000j
731       -0.0004+0.0000j -0.0000+0.0001j -0.0001-0.0000j
710       -0.0007+0.0000j -0.0001+0.0001j -0.0002-0.0000j
735       -0.0007+0.0000j -0.0001+0.0001j -0.0002-0.0000j
736       -0.0007+0.0001j -0.0001+0.0001j -0.0002-0.0000j
711       -0.0008+0.0000j -0.0002+0.0001j -0.0002-0.0000j
741       -0.0008+0.0000j -0.0002+0.0001j -0.0002-0.0000j
740       -0.0008+0.0000j -0.0002+0.0001j -0.0002-0.0000j
718       -0.0002+0.0000j  0.0000+0.0000j -0.0000-0.0000j
744       -0.0003+0.0000j  0.0000+0.0000j -0.0001-0.0000j
734       -0.0007+0.0000j -0.0001+0.0001j -0.0002-0.0000j
737       -0.0008+0.0000j -0.0001+0.0001j -0.0002-0.0000j
738       -0.0008+0.0000j -0.0001+0.0001j -0.0002-0.0000j
728       -0.0003+0.0000j  0.0000+0.0000j -0.0001-0.0000j
729       -0.0003+0.0000j  0.0000+0.0000j -0.0001-0.0000j
799r       0.0000+0.0000j  0.0000-0.0000j -0.0000+0.0000j
799        0.0000+0.0000j  0.0000-0.0000j -0.0000+0.0000j
775       -0.0004+0.0000j -0.0000+0.0001j -0.0001-0.0000j 

FBS results
                       A               B               C
sourcebus 1.0000+0.0000j -0.5000-0.8660j -0.5000+0.8660j
701       0.9841-0.0035j -0.4993-0.8553j -0.4882+0.8559j
702       0.9754-0.0057j -0.4987-0.8494j -0.4820+0.8512j
705       0.9746-0.0058j -0.4980-0.8489j -0.4813+0.8496j
713       0.9741-0.0060j -0.4977-0.8482j -0.4806+0.8493j
703       0.9667-0.0075j -0.4985-0.8439j -0.4778+0.8485j
727       0.9654-0.0072j -0.4981-0.8431j -0.4777+0.8480j
730       0.9595-0.0078j -0.4978-0.8407j -0.4764+0.8454j
704       0.9731-0.0061j -0.4960-0.8462j -0.4786+0.8473j
714       0.9729-0.0060j -0.4959-0.8460j -0.4786+0.8473j
720       0.9728-0.0067j -0.4939-0.8448j -0.4757+0.8438j
742       0.9747-0.0058j -0.4974-0.8484j -0.4808+0.8490j
712       0.9740-0.0059j -0.4981-0.8491j -0.4812+0.8490j
706       0.9730-0.0067j -0.4935-0.8446j -0.4753+0.8435j
725       0.9731-0.0067j -0.4932-0.8444j -0.4751+0.8433j
707       0.9735-0.0067j -0.4900-0.8420j -0.4728+0.8396j
724       0.9737-0.0067j -0.4893-0.8414j -0.4723+0.8389j
722       0.9736-0.0067j -0.4896-0.8417j -0.4726+0.8392j
708       0.9539-0.0077j -0.4974-0.8380j -0.4758+0.8437j
733       0.9506-0.0076j -0.4973-0.8364j -0.4756+0.8430j
732       0.9535-0.0078j -0.4975-0.8381j -0.4757+0.8433j
709       0.9574-0.0077j -0.4975-0.8396j -0.4760+0.8446j
731       0.9577-0.0077j -0.4969-0.8390j -0.4753+0.8441j
710       0.9445-0.0078j -0.4967-0.8343j -0.4745+0.8398j
735       0.9441-0.0079j -0.4968-0.8344j -0.4744+0.8393j
736       0.9449-0.0078j -0.4955-0.8333j -0.4736+0.8386j
711       0.9385-0.0076j -0.4972-0.8316j -0.4750+0.8400j
741       0.9382-0.0077j -0.4973-0.8317j -0.4750+0.8398j
740       0.9381-0.0077j -0.4973-0.8317j -0.4749+0.8396j
718       0.9717-0.0056j -0.4954-0.8449j -0.4788+0.8477j
744       0.9647-0.0071j -0.4978-0.8424j -0.4775+0.8479j
734       0.9456-0.0077j -0.4971-0.8343j -0.4751+0.8415j
737       0.9413-0.0072j -0.4969-0.8318j -0.4753+0.8414j
738       0.9395-0.0073j -0.4970-0.8312j -0.4752+0.8409j
728       0.9643-0.0070j -0.4976-0.8421j -0.4774+0.8475j
729       0.9643-0.0069j -0.4977-0.8421j -0.4776+0.8480j
799r      0.9998+0.0001j -0.4998-0.8659j -0.5000+0.8658j
799       0.9999+0.0001j -0.4999-0.8660j -0.5000+0.8659j
775       0.9574-0.0077j -0.4975-0.8396j -0.4760+0.8446j 

DSS results
                       A               B               C
sourcebus 1.0000-0.0000j -0.5000-0.8660j -0.5000+0.8660j
701       0.9842-0.0035j -0.4993-0.8553j -0.4882+0.8559j
702       0.9755-0.0058j -0.4987-0.8494j -0.4820+0.8512j
705       0.9748-0.0058j -0.4980-0.8489j -0.4812+0.8496j
713       0.9743-0.0061j -0.4977-0.8482j -0.4805+0.8493j
703       0.9670-0.0075j -0.4986-0.8439j -0.4778+0.8485j
727       0.9657-0.0072j -0.4981-0.8431j -0.4776+0.8480j
730       0.9599-0.0078j -0.4978-0.8408j -0.4763+0.8454j
704       0.9733-0.0062j -0.4960-0.8463j -0.4786+0.8473j
714       0.9731-0.0061j -0.4959-0.8460j -0.4786+0.8474j
720       0.9730-0.0068j -0.4939-0.8449j -0.4757+0.8439j
742       0.9749-0.0058j -0.4974-0.8484j -0.4808+0.8490j
712       0.9742-0.0059j -0.4981-0.8491j -0.4811+0.8490j
706       0.9732-0.0068j -0.4935-0.8446j -0.4753+0.8436j
725       0.9732-0.0068j -0.4933-0.8444j -0.4751+0.8433j
707       0.9737-0.0068j -0.4901-0.8420j -0.4728+0.8396j
724       0.9739-0.0068j -0.4893-0.8415j -0.4723+0.8389j
722       0.9737-0.0068j -0.4897-0.8418j -0.4725+0.8392j
708       0.9544-0.0078j -0.4974-0.8381j -0.4757+0.8437j
733       0.9511-0.0077j -0.4972-0.8364j -0.4754+0.8431j
732       0.9540-0.0078j -0.4974-0.8382j -0.4756+0.8434j
709       0.9578-0.0078j -0.4975-0.8396j -0.4759+0.8447j
731       0.9582-0.0078j -0.4968-0.8391j -0.4752+0.8441j
710       0.9452-0.0079j -0.4966-0.8343j -0.4743+0.8398j
735       0.9447-0.0079j -0.4967-0.8345j -0.4742+0.8393j
736       0.9456-0.0079j -0.4954-0.8334j -0.4734+0.8386j
711       0.9394-0.0076j -0.4970-0.8316j -0.4748+0.8401j
741       0.9391-0.0078j -0.4971-0.8317j -0.4747+0.8398j
740       0.9389-0.0077j -0.4971-0.8317j -0.4747+0.8396j
718       0.9719-0.0056j -0.4955-0.8449j -0.4788+0.8477j
744       0.9649-0.0071j -0.4979-0.8425j -0.4775+0.8479j
734       0.9463-0.0077j -0.4970-0.8344j -0.4749+0.8415j
737       0.9420-0.0073j -0.4968-0.8319j -0.4751+0.8414j
738       0.9403-0.0073j -0.4968-0.8313j -0.4750+0.8409j
728       0.9645-0.0070j -0.4976-0.8422j -0.4773+0.8476j
729       0.9646-0.0070j -0.4977-0.8422j -0.4775+0.8480j
799r      0.9997+0.0001j -0.4998-0.8659j -0.5000+0.8658j
799       0.9999+0.0000j -0.4999-0.8660j -0.5000+0.8659j
775       0.9578-0.0078j -0.4975-0.8396j -0.4759+0.8447j


COMPARE VMag (LN)
Max |diff|:
A.(fbs - dss)   2.3342
B.(fbs - dss)   0.4641
C.(fbs - dss)   0.6716
dtype: float64
            A.(fbs - dss)   B.(fbs - dss)   C.(fbs - dss)
sourcebus  0.0281+0.0323j  0.0110-0.0307j -0.0398+0.0069j
701       -0.2576+0.0632j  0.0556+0.0334j -0.0653-0.0430j
702       -0.4814+0.0813j  0.0557+0.0802j -0.1009-0.0562j
705       -0.4826+0.0842j  0.0585+0.0796j -0.1027-0.0584j
713       -0.4871+0.0909j  0.0658+0.0799j -0.1053-0.0651j
703       -0.7668+0.0824j  0.0283+0.1361j -0.1451-0.0423j
727       -0.7684+0.0846j  0.0303+0.1356j -0.1466-0.0439j
730       -1.0869+0.0990j -0.0573+0.1396j -0.2552-0.0488j
704       -0.4943+0.1035j  0.0790+0.0797j -0.1109-0.0766j
714       -0.4945+0.1039j  0.0794+0.0796j -0.1112-0.0770j
720       -0.5017+0.1170j  0.0934+0.0794j -0.1167-0.0889j
742       -0.4828+0.0848j  0.0591+0.0795j -0.1029-0.0587j
712       -0.4829+0.0845j  0.0587+0.0795j -0.1028-0.0586j
706       -0.5028+0.1191j  0.0955+0.0794j -0.1176-0.0908j
725       -0.5029+0.1195j  0.0959+0.0793j -0.1177-0.0910j
707       -0.5053+0.1291j  0.1052+0.0773j -0.1233-0.0974j
724       -0.5061+0.1319j  0.1080+0.0767j -0.1249-0.0994j
722       -0.5054+0.1292j  0.1053+0.0773j -0.1233-0.0974j
708       -1.3621+0.1104j -0.1346+0.1429j -0.3492-0.0518j
733       -1.5303+0.1157j -0.1841+0.1449j -0.4063-0.0519j
732       -1.3627+0.1110j -0.1342+0.1427j -0.3495-0.0520j
709       -1.1931+0.1041j -0.0863+0.1408j -0.2916-0.0505j
731       -1.1935+0.1052j -0.0848+0.1408j -0.2919-0.0514j
710       -1.8669+0.1358j -0.2744+0.1462j -0.5197-0.0563j
735       -1.8830+0.1375j -0.2784+0.1460j -0.5235-0.0561j
736       -1.8688+0.1435j -0.2662+0.1440j -0.5239-0.0617j
711       -2.2972+0.1257j -0.4287+0.1559j -0.6626-0.0389j
741       -2.3190+0.1261j -0.4359+0.1564j -0.6697-0.0381j
740       -2.3306+0.1290j -0.4373+0.1556j -0.6705-0.0385j
718       -0.4955+0.1051j  0.0806+0.0793j -0.1122-0.0779j
744       -0.7694+0.0855j  0.0312+0.1356j -0.1471-0.0447j
734       -1.8227+0.1235j -0.2722+0.1488j -0.5050-0.0508j
737       -2.1068+0.1250j -0.3659+0.1530j -0.5994-0.0437j
738       -2.2309+0.1254j -0.4070+0.1548j -0.6406-0.0405j
728       -0.7698+0.0857j  0.0314+0.1356j -0.1472-0.0448j
729       -0.7698+0.0858j  0.0316+0.1356j -0.1474-0.0450j
799r       0.0247+0.0356j  0.0124-0.0315j -0.0411+0.0062j
799        0.0264+0.0340j  0.0117-0.0311j -0.0405+0.0066j
775       -1.1931+0.1041j -0.0863+0.1408j -0.2916-0.0505j 

FBS results
                           A                     B                     C
sourcebus  2771.2813+0.0000j -1385.6406-2400.0000j -1385.6406+2400.0000j
701        2727.1668-9.7057j -1383.5941-2370.2858j -1352.9718+2372.0186j
702       2703.0365-15.9003j -1382.0214-2353.8109j -1335.8162+2358.9378j
705       2700.8894-16.1049j -1380.1624-2352.5840j -1333.7547+2354.3971j
713       2699.6074-16.6764j -1379.1577-2350.5843j -1331.7904+2353.6958j
703       2678.9853-20.6619j -1381.6002-2338.6017j -1324.1719+2351.5272j
727       2675.3251-19.9145j -1380.2676-2336.4510j -1323.7432+2349.9743j
730       2659.0212-21.5072j -1379.6729-2329.8747j -1320.2941+2342.8623j
704       2696.8180-16.9585j -1374.5381-2345.1581j -1326.4626+2348.1287j
714       2696.2372-16.7293j -1374.2042-2344.5182j -1326.4679+2348.1993j
720       2695.9258-18.6470j -1368.6286-2341.3121j -1318.3180+2338.4848j
742       2701.2425-15.9849j -1378.3863-2351.0575j -1332.5192+2352.8671j
712       2699.3363-16.3177j -1380.3790-2352.9927j -1333.4444+2352.8201j
706       2696.3844-18.6576j -1367.6678-2340.5661j -1317.3069+2337.6765j
725       2696.6240-18.6446j -1366.9088-2339.9899j -1316.7717+2336.9653j
707       2697.8671-18.6576j -1358.0141-2333.4579j -1310.3886+2326.8037j
724       2698.5183-18.6219j -1355.9511-2331.8855j -1308.9323+2324.8652j
722       2698.0175-18.6647j -1356.9553-2332.6817j -1309.5843+2325.5861j
708       2643.4189-21.4006j -1378.5243-2322.3625j -1318.5147+2338.2026j
733       2634.3119-21.0927j -1378.0496-2317.8218j -1317.9760+2336.2802j
732       2642.3622-21.5149j -1378.6798-2322.6327j -1318.3370+2337.1404j
709       2653.2098-21.4663j -1378.8407-2326.6705j -1319.1860+2340.7482j
731       2654.1335-21.4668j -1376.9375-2325.1355j -1317.1206+2339.1793j
710       2617.5706-21.7193j -1376.6166-2312.0374j -1314.9967+2327.2061j
735       2616.2425-21.8930j -1376.8049-2312.3807j -1314.7424+2325.8801j
736       2618.6809-21.6608j -1373.0961-2309.4045j -1312.5263+2323.9425j
711       2600.9613-21.0590j -1377.8740-2304.4594j -1316.4258+2328.0081j
741       2600.0950-21.3626j -1378.0756-2304.7506j -1316.2618+2327.2279j
740       2599.6259-21.2322j -1378.0643-2304.8027j -1316.1731+2326.6828j
718       2692.9074-15.5013j -1372.9684-2341.5033j -1326.9166+2349.1163j
744       2673.3317-19.5419j -1379.6591-2334.5654j -1323.4133+2349.7599j
734       2620.5724-21.2914j -1377.5571-2312.2144j -1316.6615+2331.9796j
737       2608.4855-19.9838j -1377.0989-2305.1886j -1317.1003+2331.6651j
738       2603.5460-20.1069j -1377.2833-2303.5761j -1316.9549+2330.3413j
728       2672.2108-19.3521j -1378.9580-2333.7508j -1323.0026+2348.7705j
729       2672.4387-19.1882j -1379.3055-2333.7631j -1323.5287+2350.0098j
799r       2770.6086+0.3335j -1385.1741-2399.6930j -1385.5972+2399.2925j
799        2770.9450+0.1667j -1385.4074-2399.8465j -1385.6189+2399.6462j
775       2653.2098-21.4663j -1378.8407-2326.6705j -1319.1860+2340.7482j 

DSS results
                           A                     B                     C
sourcebus  2771.2532-0.0323j -1385.6516-2399.9693j -1385.6008+2399.9931j
701        2727.4244-9.7689j -1383.6497-2370.3192j -1352.9066+2372.0616j
702       2703.5179-15.9816j -1382.0771-2353.8911j -1335.7152+2358.9941j
705       2701.3720-16.1892j -1380.2209-2352.6636j -1333.6520+2354.4554j
713       2700.0945-16.7674j -1379.2235-2350.6642j -1331.6851+2353.7610j
703       2679.7522-20.7444j -1381.6285-2338.7378j -1324.0268+2351.5695j
727       2676.0935-19.9991j -1380.2980-2336.5867j -1323.5967+2350.0182j
730       2660.1082-21.6063j -1379.6156-2330.0143j -1320.0389+2342.9111j
704       2697.3123-17.0620j -1374.6171-2345.2377j -1326.3517+2348.2053j
714       2696.7317-16.8331j -1374.2836-2344.5977j -1326.3566+2348.2762j
720       2696.4275-18.7640j -1368.7220-2341.3915j -1318.2013+2338.5738j
742       2701.7253-16.0696j -1378.4454-2351.1371j -1332.4164+2352.9258j
712       2699.8192-16.4022j -1380.4377-2353.0722j -1333.3416+2352.8786j
706       2696.8872-18.7767j -1367.7633-2340.6455j -1317.1894+2337.7672j
725       2697.1268-18.7640j -1367.0047-2340.0692j -1316.6540+2337.0563j
707       2698.3724-18.7867j -1358.1193-2333.5352j -1310.2653+2326.9011j
724       2699.0244-18.7538j -1356.0591-2331.9622j -1308.8073+2324.9646j
722       2698.5228-18.7938j -1357.0606-2332.7590j -1309.4610+2325.6835j
708       2644.7810-21.5111j -1378.3897-2322.5053j -1318.1655+2338.2543j
733       2635.8422-21.2083j -1377.8654-2317.9667j -1317.5697+2336.3321j
732       2643.7249-21.6258j -1378.5455-2322.7754j -1317.9875+2337.1925j
709       2654.4029-21.5704j -1378.7544-2326.8113j -1318.8944+2340.7988j
731       2655.3270-21.5720j -1376.8527-2325.2763j -1316.8287+2339.2307j
710       2619.4374-21.8551j -1376.3422-2312.1835j -1314.4770+2327.2624j
735       2618.1255-22.0305j -1376.5265-2312.5267j -1314.2189+2325.9362j
736       2620.5497-21.8042j -1372.8299-2309.5485j -1312.0024+2324.0042j
711       2603.2584-21.1847j -1377.4453-2304.6154j -1315.7632+2328.0470j
741       2602.4139-21.4886j -1377.6396-2304.9071j -1315.5921+2327.2660j
740       2601.9565-21.3612j -1377.6270-2304.9583j -1315.5026+2326.7213j
718       2693.4029-15.6065j -1373.0490-2341.5826j -1326.8044+2349.1943j
744       2674.1011-19.6274j -1379.6904-2334.7010j -1323.2662+2349.8047j
734       2622.3951-21.4149j -1377.2850-2312.3632j -1316.1565+2332.0304j
737       2610.5923-20.1088j -1376.7330-2305.3416j -1316.5009+2331.7088j
738       2605.7769-20.2323j -1376.8762-2303.7309j -1316.3144+2330.3817j
728       2672.9806-19.4378j -1378.9894-2333.8865j -1322.8554+2348.8154j
729       2673.2085-19.2741j -1379.3370-2333.8986j -1323.3813+2350.0548j
799r       2770.5839+0.2979j -1385.1864-2399.6615j -1385.5561+2399.2863j
799        2770.9186+0.1328j -1385.4190-2399.8154j -1385.5785+2399.6397j
775       2654.4029-21.5704j -1378.7544-2326.8113j -1318.8944+2340.7988j


COMPARE I
Max |diff|:
A.(fbs - dss)   0.0065
B.(fbs - dss)   0.0022
C.(fbs - dss)   0.0021
dtype: float64
                A.(fbs - dss)   B.(fbs - dss)  C.(fbs - dss)
line_701_702   0.0047-0.0040j -0.0015+0.0009j 0.0014+0.0008j
line_702_705   0.0000-0.0001j -0.0001+0.0000j 0.0001+0.0000j
line_702_713   0.0000-0.0005j -0.0004+0.0002j 0.0004+0.0002j
line_702_703   0.0047-0.0033j -0.0009+0.0005j 0.0008+0.0005j
line_703_727   0.0000-0.0001j -0.0001+0.0000j 0.0001+0.0000j
line_703_730   0.0046-0.0030j -0.0006+0.0004j 0.0005+0.0003j
line_704_714   0.0000-0.0001j -0.0000+0.0000j 0.0000+0.0000j
line_704_720   0.0000-0.0003j -0.0003+0.0002j 0.0003+0.0002j
line_705_742   0.0000-0.0000j -0.0000+0.0000j 0.0000+0.0000j
line_705_712   0.0000-0.0000j -0.0000+0.0000j 0.0000+0.0000j
line_706_725  -0.0000-0.0000j -0.0000+0.0000j 0.0000+0.0000j
line_707_724  -0.0000-0.0001j -0.0001+0.0000j 0.0001+0.0000j
line_707_722   0.0000-0.0000j -0.0000+0.0000j 0.0000+0.0000j
line_708_733   0.0046-0.0027j -0.0004+0.0003j 0.0004+0.0002j
line_708_732   0.0000-0.0000j -0.0000+0.0000j 0.0000+0.0000j
line_709_731  -0.0000-0.0001j -0.0001+0.0000j 0.0001+0.0000j
line_709_708   0.0046-0.0028j -0.0005+0.0003j 0.0004+0.0002j
line_710_735   0.0005-0.0002j -0.0000+0.0000j 0.0000+0.0000j
line_710_736  -0.0000-0.0001j -0.0001+0.0001j 0.0001+0.0001j
line_711_741   0.0005-0.0003j -0.0000+0.0000j 0.0000+0.0000j
line_711_740   0.0010-0.0005j -0.0000+0.0000j 0.0000+0.0000j
line_713_704   0.0000-0.0004j -0.0004+0.0002j 0.0004+0.0002j
line_714_718   0.0000-0.0000j -0.0000+0.0000j 0.0000+0.0000j
line_720_707   0.0000-0.0002j -0.0001+0.0001j 0.0001+0.0001j
line_720_706  -0.0000-0.0001j -0.0001+0.0000j 0.0001+0.0000j
line_727_744   0.0000-0.0001j -0.0001+0.0000j 0.0001+0.0000j
line_730_709   0.0046-0.0029j -0.0006+0.0003j 0.0005+0.0003j
line_733_734   0.0046-0.0027j -0.0004+0.0002j 0.0003+0.0002j
line_734_737   0.0040-0.0022j -0.0002+0.0001j 0.0002+0.0001j
line_734_710   0.0005-0.0004j -0.0001+0.0001j 0.0001+0.0001j
line_737_738   0.0028-0.0015j -0.0001+0.0001j 0.0001+0.0001j
line_738_711   0.0015-0.0008j -0.0001+0.0001j 0.0001+0.0000j
line_744_728   0.0000-0.0000j -0.0000+0.0000j 0.0000+0.0000j
line_744_729   0.0000-0.0000j -0.0000+0.0000j 0.0000+0.0000j
line_799r_701  0.0047-0.0045j -0.0019+0.0011j 0.0018+0.0011j
line_sbs_799   0.0047-0.0045j -0.0019+0.0011j 0.0018+0.0011j
line_799_799r  0.0047-0.0045j -0.0019+0.0011j 0.0018+0.0011j
line_709_775   0.0000+0.0000j -0.0000+0.0000j 0.0000+0.0000j 

FBS results
                           A               B               C
line_701_702  0.6846-0.3372j -0.5145-0.3391j -0.0450+0.7038j
line_702_705  0.0473-0.0227j -0.0430-0.0294j -0.0072+0.0954j
line_702_713  0.1491-0.0714j -0.1638-0.1090j -0.0151+0.2481j
line_702_703  0.4882-0.2431j -0.3077-0.2008j -0.0227+0.3603j
line_703_727  0.1075-0.0547j -0.0802-0.0518j -0.0035+0.0718j
line_703_730  0.3806-0.1884j -0.2275-0.1490j -0.0191+0.2885j
line_704_714  0.0520-0.0248j -0.0570-0.0390j -0.0008+0.0118j
line_704_720  0.0539-0.0259j -0.1068-0.0700j -0.0107+0.1885j
line_705_742  0.0041-0.0021j -0.0430-0.0294j -0.0036+0.0477j
line_705_712  0.0432-0.0207j -0.0000+0.0000j -0.0036+0.0477j
line_706_725  0.0000+0.0000j -0.0200-0.0131j -0.0012+0.0240j
line_707_724  0.0000+0.0000j -0.0200-0.0131j -0.0012+0.0241j
line_707_722  0.0107-0.0052j -0.0668-0.0438j -0.0048+0.0924j
line_708_733  0.3153-0.1563j -0.1879-0.1221j -0.0109+0.1686j
line_708_732  0.0217-0.0111j -0.0000+0.0000j -0.0012+0.0240j
line_709_731  0.0000+0.0000j -0.0396-0.0269j -0.0035+0.0480j
line_709_708  0.3370-0.1674j -0.1879-0.1221j -0.0121+0.1926j
line_710_735  0.0442-0.0213j -0.0000+0.0000j -0.0036+0.0482j
line_710_736  0.0000+0.0000j -0.0202-0.0130j -0.0012+0.0241j
line_711_741  0.0220-0.0112j -0.0000+0.0000j -0.0012+0.0241j
line_711_740  0.0444-0.0214j -0.0000+0.0000j -0.0036+0.0481j
line_713_704  0.1059-0.0507j -0.1638-0.1090j -0.0115+0.2004j
line_714_718  0.0433-0.0207j -0.0394-0.0270j  0.0000+0.0000j
line_720_707  0.0107-0.0052j -0.0868-0.0569j -0.0060+0.1165j
line_720_706  0.0000+0.0000j -0.0200-0.0131j -0.0012+0.0240j
line_727_744  0.0860-0.0438j -0.0802-0.0518j -0.0024+0.0479j
line_730_709  0.3370-0.1674j -0.2275-0.1490j -0.0156+0.2406j
line_733_734  0.2713-0.1352j -0.1481-0.0952j -0.0109+0.1686j
line_734_737  0.2052-0.1028j -0.1279-0.0823j -0.0048+0.0722j
line_734_710  0.0442-0.0213j -0.0202-0.0130j -0.0048+0.0723j
line_737_738  0.1322-0.0656j -0.0604-0.0391j -0.0048+0.0722j
line_738_711  0.0664-0.0326j -0.0000+0.0000j -0.0048+0.0722j
line_744_728  0.0430-0.0219j -0.0401-0.0259j -0.0024+0.0479j
line_744_729  0.0215-0.0109j -0.0201-0.0129j  0.0000+0.0000j
line_799r_701 0.9321-0.4621j -0.6465-0.4253j -0.0601+0.9804j
line_sbs_799  0.9321-0.4621j -0.6465-0.4253j -0.0601+0.9804j
line_799_799r 0.9321-0.4621j -0.6465-0.4253j -0.0601+0.9804j
line_709_775  0.0000+0.0000j -0.0000+0.0000j  0.0000+0.0000j 

DSS results
                           A               B               C
line_701_702  0.6799-0.3332j -0.5130-0.3400j -0.0464+0.7030j
line_702_705  0.0473-0.0226j -0.0430-0.0294j -0.0073+0.0954j
line_702_713  0.1491-0.0709j -0.1634-0.1092j -0.0155+0.2478j
line_702_703  0.4835-0.2398j -0.3068-0.2013j -0.0235+0.3599j
line_703_727  0.1075-0.0546j -0.0801-0.0518j -0.0036+0.0718j
line_703_730  0.3760-0.1854j -0.2269-0.1494j -0.0197+0.2882j
line_704_714  0.0520-0.0248j -0.0569-0.0390j -0.0009+0.0118j
line_704_720  0.0539-0.0256j -0.1065-0.0701j -0.0110+0.1884j
line_705_742  0.0041-0.0020j -0.0430-0.0294j -0.0036+0.0477j
line_705_712  0.0432-0.0206j  0.0000-0.0000j -0.0036+0.0477j
line_706_725  0.0000+0.0000j -0.0200-0.0131j -0.0012+0.0240j
line_707_724  0.0000+0.0001j -0.0200-0.0132j -0.0012+0.0241j
line_707_722  0.0107-0.0052j -0.0668-0.0438j -0.0048+0.0924j
line_708_733  0.3107-0.1536j -0.1874-0.1224j -0.0113+0.1684j
line_708_732  0.0217-0.0110j  0.0000-0.0000j -0.0012+0.0240j
line_709_731  0.0000+0.0001j -0.0396-0.0269j -0.0036+0.0480j
line_709_708  0.3323-0.1646j -0.1874-0.1224j -0.0125+0.1924j
line_710_735  0.0437-0.0210j  0.0000-0.0000j -0.0036+0.0481j
line_710_736  0.0000+0.0001j -0.0201-0.0130j -0.0013+0.0241j
line_711_741  0.0215-0.0109j  0.0000-0.0000j -0.0013+0.0241j
line_711_740  0.0435-0.0209j  0.0000-0.0000j -0.0036+0.0481j
line_713_704  0.1059-0.0503j -0.1634-0.1092j -0.0119+0.2001j
line_714_718  0.0433-0.0206j -0.0393-0.0270j -0.0000-0.0000j
line_720_707  0.0107-0.0050j -0.0867-0.0570j -0.0061+0.1164j
line_720_706  0.0000+0.0001j -0.0199-0.0131j -0.0013+0.0240j
line_727_744  0.0860-0.0437j -0.0801-0.0518j -0.0024+0.0479j
line_730_709  0.3323-0.1645j -0.2269-0.1493j -0.0161+0.2403j
line_733_734  0.2667-0.1325j -0.1478-0.0955j -0.0112+0.1684j
line_734_737  0.2013-0.1006j -0.1277-0.0824j -0.0050+0.0721j
line_734_710  0.0437-0.0209j -0.0201-0.0131j -0.0050+0.0722j
line_737_738  0.1294-0.0641j -0.0603-0.0392j -0.0050+0.0722j
line_738_711  0.0649-0.0317j  0.0001-0.0001j -0.0049+0.0722j
line_744_728  0.0430-0.0219j -0.0401-0.0259j -0.0024+0.0479j
line_744_729  0.0215-0.0109j -0.0200-0.0130j -0.0000-0.0000j
line_799r_701 0.9274-0.4576j -0.6446-0.4265j -0.0619+0.9793j
line_sbs_799  0.9274-0.4576j -0.6446-0.4265j -0.0619+0.9793j
line_799_799r 0.9274-0.4576j -0.6446-0.4265j -0.0619+0.9793j
line_709_775  0.0000+0.0000j  0.0000+0.0000j  0.0000+0.0000j


COMPARE Stx
Max |diff|:
A.(fbs - dss)   0.0065
B.(fbs - dss)   0.0022
C.(fbs - dss)   0.0021
dtype: float64
                A.(fbs - dss)   B.(fbs - dss)   C.(fbs - dss)
line_701_702   0.0046+0.0039j -0.0000+0.0018j  0.0000+0.0017j
line_702_705  -0.0000+0.0001j -0.0000+0.0001j  0.0000+0.0001j
line_702_713  -0.0000+0.0005j  0.0000+0.0005j  0.0000+0.0005j
line_702_703   0.0045+0.0032j -0.0000+0.0010j  0.0000+0.0010j
line_703_727  -0.0000+0.0001j -0.0000+0.0001j  0.0000+0.0001j
line_703_730   0.0044+0.0028j -0.0000+0.0007j  0.0000+0.0006j
line_704_714  -0.0000+0.0000j -0.0000+0.0001j  0.0000+0.0000j
line_704_720  -0.0000+0.0003j  0.0000+0.0003j  0.0000+0.0003j
line_705_742  -0.0000+0.0000j -0.0000+0.0000j  0.0000+0.0000j
line_705_712  -0.0000+0.0000j  0.0000+0.0000j  0.0000+0.0000j
line_706_725   0.0000+0.0000j -0.0000+0.0000j  0.0000+0.0000j
line_707_724   0.0000+0.0001j -0.0000+0.0001j  0.0000+0.0001j
line_707_722  -0.0000+0.0000j -0.0000+0.0000j  0.0000+0.0000j
line_708_733   0.0043+0.0025j -0.0000+0.0005j  0.0000+0.0004j
line_708_732  -0.0000+0.0000j  0.0000+0.0000j  0.0000+0.0000j
line_709_731   0.0000+0.0001j -0.0000+0.0001j  0.0000+0.0001j
line_709_708   0.0043+0.0026j -0.0000+0.0005j  0.0000+0.0005j
line_710_735   0.0004+0.0002j  0.0000+0.0000j  0.0000+0.0000j
line_710_736   0.0000+0.0001j  0.0000+0.0001j  0.0000+0.0001j
line_711_741   0.0004+0.0003j -0.0000+0.0000j  0.0000+0.0000j
line_711_740   0.0009+0.0004j  0.0000+0.0000j  0.0000+0.0000j
line_713_704  -0.0000+0.0004j  0.0000+0.0004j  0.0000+0.0004j
line_714_718  -0.0000+0.0000j -0.0000+0.0000j -0.0000+0.0000j
line_720_707  -0.0000+0.0001j -0.0000+0.0001j  0.0000+0.0001j
line_720_706  -0.0000+0.0001j -0.0000+0.0001j  0.0000+0.0001j
line_727_744  -0.0000+0.0001j -0.0000+0.0001j  0.0000+0.0001j
line_730_709   0.0043+0.0027j -0.0000+0.0006j  0.0000+0.0006j
line_733_734   0.0042+0.0025j -0.0000+0.0004j  0.0000+0.0004j
line_734_737   0.0036+0.0020j -0.0000+0.0002j  0.0000+0.0002j
line_734_710   0.0004+0.0004j  0.0000+0.0002j  0.0000+0.0002j
line_737_738   0.0025+0.0014j -0.0000+0.0001j  0.0000+0.0001j
line_738_711   0.0013+0.0007j -0.0000+0.0001j  0.0000+0.0001j
line_744_728  -0.0000+0.0000j -0.0000+0.0000j  0.0000+0.0000j
line_744_729  -0.0000+0.0000j -0.0000+0.0000j -0.0000+0.0000j
line_799r_701  0.0047+0.0045j -0.0000+0.0022j  0.0000+0.0021j
line_sbs_799   0.0047+0.0045j -0.0000+0.0022j  0.0000+0.0021j
line_799_799r  0.0047+0.0045j -0.0000+0.0022j  0.0000+0.0021j
line_709_775   0.0000-0.0000j  0.0000+0.0000j  0.0000+0.0000j 

FBS results
                           A              B              C
line_701_702  0.6748+0.3295j 0.5469+0.2708j 0.6244+0.3051j
line_702_705  0.0463+0.0219j 0.0464+0.0219j 0.0847+0.0398j
line_702_713  0.1459+0.0688j 0.1742+0.0848j 0.2184+0.1067j
line_702_703  0.4775+0.2343j 0.3240+0.1612j 0.3176+0.1544j
line_703_727  0.1043+0.0521j 0.0837+0.0419j 0.0626+0.0313j
line_703_730  0.3694+0.1793j 0.2391+0.1177j 0.2539+0.1216j
line_704_714  0.0507+0.0238j 0.0613+0.0289j 0.0104+0.0050j
line_704_720  0.0526+0.0249j 0.1122+0.0557j 0.1648+0.0812j
line_705_742  0.0040+0.0020j 0.0464+0.0219j 0.0423+0.0199j
line_705_712  0.0422+0.0199j 0.0000+0.0000j 0.0423+0.0199j
line_706_725  0.0000-0.0000j 0.0209+0.0104j 0.0208+0.0104j
line_707_724  0.0000-0.0000j 0.0209+0.0104j 0.0208+0.0104j
line_707_722  0.0104+0.0050j 0.0696+0.0348j 0.0798+0.0397j
line_708_733  0.3019+0.1467j 0.1958+0.0967j 0.1474+0.0710j
line_708_732  0.0208+0.0104j 0.0000+0.0000j 0.0208+0.0104j
line_709_731  0.0000-0.0000j 0.0423+0.0199j 0.0422+0.0199j
line_709_708  0.3239+0.1577j 0.1960+0.0970j 0.1684+0.0815j
line_710_735  0.0419+0.0197j 0.0000+0.0000j 0.0421+0.0198j
line_710_736  0.0000-0.0000j 0.0209+0.0104j 0.0208+0.0104j
line_711_741  0.0207+0.0103j 0.0000+0.0000j 0.0208+0.0104j
line_711_740  0.0419+0.0197j 0.0000+0.0000j 0.0422+0.0198j
line_713_704  0.1035+0.0488j 0.1739+0.0847j 0.1757+0.0865j
line_714_718  0.0423+0.0199j 0.0423+0.0199j 0.0000+0.0000j
line_720_707  0.0104+0.0050j 0.0910+0.0452j 0.1011+0.0504j
line_720_706  0.0000-0.0000j 0.0209+0.0104j 0.0208+0.0104j
line_727_744  0.0834+0.0417j 0.0836+0.0418j 0.0417+0.0209j
line_730_709  0.3246+0.1580j 0.2385+0.1171j 0.2108+0.1014j
line_733_734  0.2589+0.1264j 0.1533+0.0765j 0.1473+0.0710j
line_734_737  0.1949+0.0956j 0.1322+0.0658j 0.0631+0.0302j
line_734_710  0.0420+0.0198j 0.0209+0.0104j 0.0631+0.0303j
line_737_738  0.1249+0.0608j 0.0625+0.0308j 0.0631+0.0302j
line_738_711  0.0626+0.0301j 0.0000+0.0000j 0.0630+0.0302j
line_744_728  0.0416+0.0208j 0.0418+0.0209j 0.0417+0.0209j
line_744_729  0.0208+0.0104j 0.0209+0.0104j 0.0000+0.0000j
line_799r_701 0.9318+0.4621j 0.6915+0.3472j 0.8789+0.4381j
line_sbs_799  0.9321+0.4621j 0.6916+0.3472j 0.8791+0.4381j
line_799_799r 0.9320+0.4621j 0.6915+0.3472j 0.8790+0.4381j
line_709_775  0.0000-0.0000j 0.0000+0.0000j 0.0000+0.0000j 

DSS results
                            A               B              C
line_701_702   0.6703+0.3255j  0.5469+0.2690j 0.6244+0.3034j
line_702_705   0.0463+0.0218j  0.0464+0.0218j 0.0847+0.0398j
line_702_713   0.1459+0.0683j  0.1742+0.0843j 0.2184+0.1063j
line_702_703   0.4731+0.2312j  0.3240+0.1602j 0.3176+0.1534j
line_703_727   0.1043+0.0520j  0.0837+0.0418j 0.0626+0.0312j
line_703_730   0.3650+0.1765j  0.2392+0.1170j 0.2539+0.1210j
line_704_714   0.0507+0.0238j  0.0613+0.0288j 0.0104+0.0049j
line_704_720   0.0526+0.0246j  0.1122+0.0554j 0.1648+0.0809j
line_705_742   0.0040+0.0020j  0.0464+0.0219j 0.0423+0.0199j
line_705_712   0.0423+0.0199j -0.0000-0.0000j 0.0423+0.0199j
line_706_725  -0.0000-0.0000j  0.0209+0.0104j 0.0208+0.0104j
line_707_724  -0.0000-0.0001j  0.0209+0.0104j 0.0208+0.0104j
line_707_722   0.0104+0.0050j  0.0696+0.0348j 0.0798+0.0397j
line_708_733   0.2977+0.1442j  0.1958+0.0962j 0.1474+0.0706j
line_708_732   0.0208+0.0104j -0.0000-0.0000j 0.0208+0.0104j
line_709_731  -0.0000-0.0001j  0.0423+0.0198j 0.0422+0.0198j
line_709_708   0.3196+0.1551j  0.1960+0.0964j 0.1684+0.0810j
line_710_735   0.0415+0.0195j -0.0000-0.0000j 0.0421+0.0198j
line_710_736  -0.0000-0.0001j  0.0209+0.0103j 0.0208+0.0103j
line_711_741   0.0203+0.0101j  0.0000-0.0000j 0.0208+0.0104j
line_711_740   0.0410+0.0193j -0.0000-0.0000j 0.0422+0.0198j
line_713_704   0.1035+0.0484j  0.1739+0.0843j 0.1757+0.0861j
line_714_718   0.0423+0.0198j  0.0423+0.0199j 0.0000-0.0000j
line_720_707   0.0104+0.0048j  0.0910+0.0451j 0.1011+0.0502j
line_720_706   0.0000-0.0001j  0.0209+0.0104j 0.0208+0.0103j
line_727_744   0.0834+0.0416j  0.0836+0.0418j 0.0417+0.0208j
line_730_709   0.3203+0.1553j  0.2385+0.1165j 0.2108+0.1009j
line_733_734   0.2547+0.1240j  0.1533+0.0761j 0.1473+0.0706j
line_734_737   0.1912+0.0937j  0.1322+0.0656j 0.0631+0.0300j
line_734_710   0.0416+0.0194j  0.0209+0.0103j 0.0631+0.0301j
line_737_738   0.1224+0.0594j  0.0625+0.0307j 0.0631+0.0301j
line_738_711   0.0613+0.0294j  0.0000-0.0001j 0.0630+0.0301j
line_744_728   0.0417+0.0208j  0.0418+0.0209j 0.0417+0.0208j
line_744_729   0.0208+0.0104j  0.0209+0.0104j 0.0000-0.0000j
line_799r_701  0.9271+0.4576j  0.6915+0.3450j 0.8788+0.4360j
line_sbs_799   0.9274+0.4576j  0.6916+0.3450j 0.8791+0.4360j
line_799_799r  0.9272+0.4576j  0.6916+0.3450j 0.8790+0.4360j
line_709_775   0.0000+0.0000j  0.0000+0.0000j 0.0000+0.0000j


COMPARE Srx
Max |diff|:
A.(fbs - dss)   0.0065
B.(fbs - dss)   0.0022
C.(fbs - dss)   0.0021
dtype: float64
                A.(fbs - dss)   B.(fbs - dss)   C.(fbs - dss)
line_701_702   0.0045+0.0037j -0.0000+0.0016j  0.0000+0.0015j
line_702_705  -0.0000+0.0000j -0.0000+0.0000j  0.0000+0.0000j
line_702_713  -0.0000+0.0004j  0.0000+0.0004j  0.0000+0.0004j
line_702_703   0.0044+0.0029j -0.0000+0.0008j  0.0000+0.0007j
line_703_727  -0.0000+0.0001j -0.0000+0.0001j  0.0000+0.0001j
line_703_730   0.0043+0.0027j -0.0000+0.0006j  0.0000+0.0006j
line_704_714  -0.0000+0.0000j -0.0000+0.0000j  0.0000+0.0000j
line_704_720  -0.0000+0.0002j -0.0000+0.0002j  0.0000+0.0002j
line_705_742  -0.0000-0.0000j -0.0000-0.0000j  0.0000+0.0000j
line_705_712  -0.0000-0.0000j -0.0000+0.0000j  0.0000+0.0000j
line_706_725  -0.0000+0.0000j -0.0000-0.0000j  0.0000+0.0000j
line_707_724   0.0000-0.0000j -0.0000-0.0000j  0.0000+0.0000j
line_707_722  -0.0000-0.0000j -0.0000-0.0000j  0.0000+0.0000j
line_708_733   0.0042+0.0025j -0.0000+0.0004j  0.0000+0.0004j
line_708_732  -0.0000-0.0000j -0.0000+0.0000j  0.0000+0.0000j
line_709_731  -0.0000+0.0000j -0.0000-0.0000j  0.0000+0.0000j
line_709_708   0.0043+0.0025j -0.0000+0.0005j  0.0000+0.0005j
line_710_735   0.0004+0.0002j  0.0000-0.0000j  0.0000+0.0000j
line_710_736  -0.0000-0.0000j  0.0000+0.0000j  0.0000+0.0000j
line_711_741   0.0004+0.0002j -0.0000-0.0000j  0.0000+0.0000j
line_711_740   0.0009+0.0004j  0.0000-0.0000j  0.0000+0.0000j
line_713_704  -0.0000+0.0004j -0.0000+0.0004j  0.0000+0.0004j
line_714_718  -0.0000-0.0000j -0.0000-0.0000j  0.0000-0.0000j
line_720_707  -0.0000+0.0001j -0.0000+0.0001j  0.0000+0.0001j
line_720_706   0.0000+0.0000j -0.0000+0.0000j  0.0000+0.0000j
line_727_744  -0.0000+0.0000j -0.0000+0.0000j  0.0000+0.0000j
line_730_709   0.0043+0.0027j -0.0000+0.0006j  0.0000+0.0006j
line_733_734   0.0042+0.0024j -0.0000+0.0004j  0.0000+0.0004j
line_734_737   0.0036+0.0019j  0.0000+0.0001j  0.0000+0.0001j
line_734_710   0.0004+0.0003j  0.0000+0.0001j  0.0000+0.0001j
line_737_738   0.0025+0.0013j  0.0000+0.0001j  0.0000+0.0001j
line_738_711   0.0013+0.0007j -0.0000+0.0001j  0.0000+0.0001j
line_744_728  -0.0000-0.0000j -0.0000-0.0000j  0.0000+0.0000j
line_744_729  -0.0000-0.0000j -0.0000-0.0000j -0.0000+0.0000j
line_799r_701  0.0046+0.0039j -0.0000+0.0018j  0.0000+0.0017j
line_sbs_799   0.0047+0.0045j -0.0000+0.0022j  0.0000+0.0021j
line_799_799r  0.0047+0.0045j -0.0000+0.0022j  0.0000+0.0021j
line_709_775   0.0000+0.0000j  0.0000+0.0000j  0.0000+0.0000j 

FBS results
                           A              B              C
line_701_702  0.6696+0.3250j 0.5446+0.2679j 0.6208+0.3010j
line_702_705  0.0462+0.0219j 0.0464+0.0219j 0.0845+0.0398j
line_702_713  0.1457+0.0686j 0.1739+0.0847j 0.2179+0.1064j
line_702_703  0.4737+0.2314j 0.3228+0.1595j 0.3166+0.1529j
line_703_727  0.1042+0.0521j 0.0836+0.0418j 0.0626+0.0313j
line_703_730  0.3667+0.1778j 0.2385+0.1171j 0.2530+0.1213j
line_704_714  0.0507+0.0238j 0.0612+0.0289j 0.0104+0.0050j
line_704_720  0.0526+0.0248j 0.1119+0.0557j 0.1642+0.0807j
line_705_742  0.0040+0.0020j 0.0463+0.0219j 0.0422+0.0199j
line_705_712  0.0422+0.0199j 0.0000+0.0000j 0.0422+0.0199j
line_706_725  0.0000-0.0000j 0.0209+0.0104j 0.0208+0.0104j
line_707_724  0.0000-0.0000j 0.0209+0.0104j 0.0208+0.0104j
line_707_722  0.0104+0.0050j 0.0695+0.0348j 0.0798+0.0396j
line_708_733  0.3009+0.1462j 0.1955+0.0964j 0.1473+0.0710j
line_708_732  0.0208+0.0104j 0.0000+0.0000j 0.0208+0.0104j
line_709_731  0.0000-0.0000j 0.0422+0.0199j 0.0422+0.0198j
line_709_708  0.3227+0.1571j 0.1958+0.0967j 0.1683+0.0814j
line_710_735  0.0419+0.0197j 0.0000+0.0000j 0.0421+0.0198j
line_710_736  0.0000-0.0000j 0.0208+0.0104j 0.0208+0.0104j
line_711_741  0.0207+0.0103j 0.0000+0.0000j 0.0208+0.0104j
line_711_740  0.0419+0.0197j 0.0000+0.0000j 0.0421+0.0198j
line_713_704  0.1034+0.0487j 0.1734+0.0846j 0.1753+0.0861j
line_714_718  0.0422+0.0199j 0.0423+0.0199j 0.0000+0.0000j
line_720_707  0.0104+0.0050j 0.0905+0.0452j 0.1006+0.0501j
line_720_706  0.0000-0.0000j 0.0209+0.0104j 0.0208+0.0104j
line_727_744  0.0833+0.0416j 0.0836+0.0418j 0.0417+0.0209j
line_730_709  0.3239+0.1577j 0.2383+0.1169j 0.2106+0.1014j
line_733_734  0.2576+0.1258j 0.1531+0.0763j 0.1470+0.0709j
line_734_737  0.1939+0.0953j 0.1320+0.0655j 0.0631+0.0302j
line_734_710  0.0419+0.0197j 0.0209+0.0104j 0.0630+0.0303j
line_737_738  0.1247+0.0607j 0.0625+0.0308j 0.0630+0.0302j
line_738_711  0.0626+0.0301j 0.0000+0.0000j 0.0630+0.0302j
line_744_728  0.0416+0.0208j 0.0418+0.0209j 0.0417+0.0209j
line_744_729  0.0208+0.0104j 0.0209+0.0104j 0.0000+0.0000j
line_799r_701 0.9189+0.4515j 0.6866+0.3406j 0.8685+0.4272j
line_sbs_799  0.9320+0.4621j 0.6915+0.3472j 0.8790+0.4381j
line_799_799r 0.9318+0.4621j 0.6915+0.3472j 0.8789+0.4381j
line_709_775  0.0000-0.0000j 0.0000+0.0000j 0.0000+0.0000j 

DSS results
                            A               B               C
line_701_702   0.6652+0.3213j  0.5446+0.2663j  0.6208+0.2995j
line_702_705   0.0462+0.0218j  0.0464+0.0219j  0.0845+0.0397j
line_702_713   0.1457+0.0682j  0.1739+0.0843j  0.2179+0.1060j
line_702_703   0.4693+0.2285j  0.3229+0.1588j  0.3166+0.1522j
line_703_727   0.1042+0.0520j  0.0836+0.0418j  0.0626+0.0312j
line_703_730   0.3624+0.1751j  0.2385+0.1165j  0.2530+0.1207j
line_704_714   0.0507+0.0238j  0.0612+0.0288j  0.0104+0.0049j
line_704_720   0.0526+0.0246j  0.1119+0.0554j  0.1642+0.0804j
line_705_742   0.0040+0.0020j  0.0463+0.0219j  0.0422+0.0199j
line_705_712   0.0422+0.0199j  0.0000-0.0000j  0.0422+0.0199j
line_706_725   0.0000-0.0000j  0.0209+0.0104j  0.0208+0.0104j
line_707_724  -0.0000+0.0000j  0.0209+0.0104j  0.0208+0.0104j
line_707_722   0.0104+0.0050j  0.0695+0.0348j  0.0798+0.0396j
line_708_733   0.2967+0.1437j  0.1956+0.0960j  0.1473+0.0706j
line_708_732   0.0208+0.0104j  0.0000-0.0000j  0.0208+0.0104j
line_709_731   0.0000-0.0000j  0.0422+0.0199j  0.0422+0.0198j
line_709_708   0.3184+0.1545j  0.1958+0.0962j  0.1682+0.0810j
line_710_735   0.0415+0.0195j -0.0000+0.0000j  0.0421+0.0198j
line_710_736   0.0000+0.0000j  0.0208+0.0104j  0.0208+0.0104j
line_711_741   0.0202+0.0101j  0.0000+0.0000j  0.0208+0.0104j
line_711_740   0.0410+0.0193j -0.0000+0.0000j  0.0421+0.0198j
line_713_704   0.1034+0.0483j  0.1734+0.0842j  0.1753+0.0858j
line_714_718   0.0422+0.0199j  0.0423+0.0199j -0.0000+0.0000j
line_720_707   0.0104+0.0049j  0.0905+0.0451j  0.1006+0.0500j
line_720_706  -0.0000-0.0000j  0.0209+0.0104j  0.0208+0.0104j
line_727_744   0.0833+0.0416j  0.0836+0.0417j  0.0417+0.0208j
line_730_709   0.3196+0.1550j  0.2383+0.1163j  0.2106+0.1008j
line_733_734   0.2534+0.1234j  0.1531+0.0759j  0.1470+0.0706j
line_734_737   0.1903+0.0934j  0.1320+0.0654j  0.0631+0.0301j
line_734_710   0.0415+0.0194j  0.0209+0.0103j  0.0630+0.0301j
line_737_738   0.1222+0.0593j  0.0625+0.0307j  0.0630+0.0301j
line_738_711   0.0612+0.0294j  0.0000-0.0001j  0.0630+0.0302j
line_744_728   0.0416+0.0208j  0.0418+0.0209j  0.0417+0.0209j
line_744_729   0.0208+0.0104j  0.0209+0.0104j  0.0000-0.0000j
line_799r_701  0.9143+0.4475j  0.6866+0.3388j  0.8685+0.4255j
line_sbs_799   0.9272+0.4576j  0.6916+0.3450j  0.8790+0.4360j
line_799_799r  0.9271+0.4576j  0.6915+0.3450j  0.8788+0.4360j
line_709_775  -0.0000-0.0000j -0.0000-0.0000j -0.0000-0.0000j


COMPARE TOTAL NODE POWERS

Max |diff|:
A.(fbs - dss)   1.2989
B.(fbs - dss)   0.0008
C.(fbs - dss)   1.2914
dtype: float64
            A.(fbs - dss)   B.(fbs - dss)   C.(fbs - dss)
sourcebus  0.0000+0.0000j  0.0000+0.0000j  0.0000+0.0000j
701       -0.0571-0.0284j -0.0007-0.0003j  0.0518+0.0260j
702        0.0000+0.0000j  0.0000+0.0000j  0.0000+0.0000j
705        0.0000+0.0000j  0.0000+0.0000j  0.0000+0.0000j
713       -0.0176-0.0082j  0.0000+0.0000j  0.0159+0.0075j
703        0.0000+0.0000j  0.0000+0.0000j  0.0000+0.0000j
727       -0.0401-0.0200j  0.0000+0.0000j  0.0388+0.0194j
730       -0.1120-0.0526j  0.0000+0.0000j  0.1084+0.0511j
704        0.0000+0.0000j  0.0000+0.0000j  0.0000+0.0000j
714       -0.0004-0.0002j -0.0002-0.0001j  0.0000+0.0000j
720        0.0431+0.0203j  0.0000+0.0000j -0.0449-0.0211j
742       -0.0002-0.0001j -0.0004-0.0002j  0.0001+0.0001j
712       -0.0188-0.0088j  0.0000+0.0000j  0.0171+0.0081j
706        0.0000+0.0000j  0.0000+0.0000j  0.0000+0.0000j
725        0.0000+0.0000j -0.0002-0.0001j  0.0000+0.0000j
707        0.0000+0.0000j  0.0000+0.0000j  0.0000+0.0000j
724        0.0000+0.0000j -0.0002-0.0001j  0.0000+0.0000j
722        0.0269+0.0128j -0.0007-0.0004j -0.0272-0.0129j
708        0.0000+0.0000j  0.0000+0.0000j  0.0000+0.0000j
733       -0.0056-0.0026j -0.0001-0.0000j  0.0000+0.0000j
732       -0.0747-0.0373j  0.0000+0.0000j  0.0726+0.0363j
709        0.0000+0.0000j  0.0000+0.0000j  0.0000+0.0000j
731        0.0000+0.0000j -0.0003-0.0001j  0.0005+0.0003j
710        0.0000+0.0000j  0.0000+0.0000j  0.0000+0.0000j
735       -0.2037-0.0958j  0.0000+0.0000j  0.6276+0.2954j
736        0.0000+0.0000j  0.0001+0.0000j  0.0005+0.0003j
711        0.0000+0.0000j  0.0000+0.0000j  0.0000+0.0000j
741       -0.1332-0.0666j  0.0000+0.0000j  0.5708+0.2855j
740       -0.2693-0.1267j  0.0000+0.0000j  1.1685+0.5499j
718       -0.0018-0.0008j -0.0004-0.0002j  0.0000+0.0000j
744       -0.0014-0.0007j -0.0002-0.0001j  0.0000+0.0000j
734       -0.1044-0.0521j  0.0000+0.0000j  0.2515+0.1258j
737        1.0622+0.5312j  0.0005+0.0002j  0.0000+0.0000j
738        1.1654+0.5736j  0.0005+0.0002j  0.0000+0.0000j
728       -0.0028-0.0013j -0.0005-0.0002j  0.0002+0.0002j
729       -0.0014-0.0007j -0.0002-0.0001j  0.0000+0.0000j
799r       0.0000+0.0000j  0.0000+0.0000j  0.0000+0.0000j
799        0.0000+0.0000j  0.0000+0.0000j  0.0000+0.0000j
775        0.0000+0.0000j  0.0000+0.0000j  0.0000+0.0000j 

FBS results
                           A                 B                  C
sourcebus     0.0000+0.0000j    0.0000+0.0000j     0.0000+0.0000j
701       244.0316+122.0158j 139.6638+69.8319j 244.1095+122.0547j
702           0.0000+0.0000j    0.0000+0.0000j     0.0000+0.0000j
705           0.0000+0.0000j    0.0000+0.0000j     0.0000+0.0000j
713         42.2282+19.8721j    0.0000+0.0000j   42.2459+19.8804j
703           0.0000+0.0000j    0.0000+0.0000j     0.0000+0.0000j
727         20.8209+10.4104j    0.0000+0.0000j   20.8611+10.4305j
730         42.0769+19.8009j    0.0000+0.0000j   42.1893+19.8538j
704           0.0000+0.0000j    0.0000+0.0000j     0.0000+0.0000j
714           8.4431+3.9732j   18.9087+8.9567j    10.4304+4.9668j
720         42.2145+19.8656j    0.0000+0.0000j   42.1714+19.8454j
742           3.9750+1.9875j  46.3085+21.9094j   42.2445+19.8798j
712         42.2272+19.8716j    0.0000+0.0000j   42.2461+19.8805j
706           0.0000+0.0000j    0.0000+0.0000j     0.0000+0.0000j
725           0.0000+0.0000j  20.8849+10.4424j   20.8338+10.4169j
707           0.0000+0.0000j    0.0000+0.0000j     0.0000+0.0000j
724           0.0000+0.0000j  20.8616+10.4308j   20.8073+10.4036j
722          10.4314+4.9673j  69.5462+34.7731j   79.7679+39.6362j
708           0.0000+0.0000j    0.0000+0.0000j     0.0000+0.0000j
733         41.9856+19.7579j  42.2165+19.8666j     0.0000+0.0000j
732         20.7605+10.3802j    0.0000+0.0000j   20.8355+10.4177j
709           0.0000+0.0000j    0.0000+0.0000j     0.0000+0.0000j
731           0.0000+0.0000j  42.2380+19.8767j   42.1715+19.8454j
710           0.0000+0.0000j    0.0000+0.0000j     0.0000+0.0000j
735         41.9192+19.7267j    0.0000+0.0000j   42.1239+19.8230j
736           0.0000+0.0000j  20.8419+10.4209j   20.8091+10.4045j
711           0.0000+0.0000j    0.0000+0.0000j     0.0000+0.0000j
741         20.6839+10.3419j    0.0000+0.0000j   20.8177+10.4088j
740         41.8585+19.6981j    0.0000+0.0000j   42.1291+19.8255j
718         42.2031+19.8603j  42.2835+19.8981j     0.0000+0.0000j
744         20.8172+10.4086j  20.8882+10.4441j     0.0000+0.0000j
734         20.7209+10.3604j    0.0000+0.0000j   20.8257+10.4128j
737         68.9966+34.4983j  69.4632+34.7316j     0.0000+0.0000j
738         62.0702+30.5425j  62.5097+30.7587j     0.0000+0.0000j
728         41.6303+20.8151j  41.7725+20.8862j   41.7169+20.8585j
729         20.8155+10.4078j  20.8866+10.4433j     0.0000+0.0000j
799r          0.0000+0.0000j    0.0000+0.0000j     0.0000+0.0000j
799           0.0000+0.0000j    0.0000+0.0000j     0.0000+0.0000j
775           0.0000+0.0000j    0.0000+0.0000j     0.0000+0.0000j 

DSS results
                           A                 B                  C
sourcebus     0.0000+0.0000j    0.0000+0.0000j     0.0000+0.0000j
701       244.0887+122.0442j 139.6645+69.8322j 244.0577+122.0288j
702           0.0000+0.0000j    0.0000+0.0000j     0.0000+0.0000j
705           0.0000+0.0000j    0.0000+0.0000j     0.0000+0.0000j
713         42.2458+19.8804j    0.0000+0.0000j   42.2300+19.8729j
703           0.0000+0.0000j    0.0000+0.0000j     0.0000+0.0000j
727         20.8610+10.4305j    0.0000+0.0000j   20.8223+10.4111j
730         42.1889+19.8535j    0.0000+0.0000j   42.0809+19.8027j
704           0.0000+0.0000j    0.0000+0.0000j     0.0000+0.0000j
714           8.4435+3.9734j   18.9088+8.9568j    10.4303+4.9668j
720         42.1713+19.8453j    0.0000+0.0000j   42.2163+19.8665j
742           3.9752+1.9876j  46.3089+21.9096j   42.2444+19.8797j
712         42.2460+19.8804j    0.0000+0.0000j   42.2290+19.8724j
706           0.0000+0.0000j    0.0000+0.0000j     0.0000+0.0000j
725           0.0000+0.0000j  20.8851+10.4426j   20.8338+10.4169j
707           0.0000+0.0000j    0.0000+0.0000j     0.0000+0.0000j
724           0.0000+0.0000j  20.8618+10.4309j   20.8072+10.4036j
722          10.4045+4.9545j  69.5469+34.7735j   79.7952+39.6491j
708           0.0000+0.0000j    0.0000+0.0000j     0.0000+0.0000j
733         41.9911+19.7605j  42.2166+19.8666j     0.0000+0.0000j
732         20.8352+10.4176j    0.0000+0.0000j   20.7629+10.3814j
709           0.0000+0.0000j    0.0000+0.0000j     0.0000+0.0000j
731           0.0000+0.0000j  42.2383+19.8768j   42.1710+19.8451j
710           0.0000+0.0000j    0.0000+0.0000j     0.0000+0.0000j
735         42.1229+19.8225j    0.0000+0.0000j   41.4963+19.5276j
736           0.0000+0.0000j  20.8418+10.4209j   20.8086+10.4043j
711           0.0000+0.0000j    0.0000+0.0000j     0.0000+0.0000j
741         20.8171+10.4085j    0.0000+0.0000j   20.2468+10.1234j
740         42.1278+19.8248j    0.0000+0.0000j   40.9606+19.2755j
718         42.2049+19.8611j  42.2839+19.8983j     0.0000+0.0000j
744         20.8186+10.4093j  20.8885+10.4442j     0.0000+0.0000j
734         20.8252+10.4126j    0.0000+0.0000j   20.5741+10.2870j
737         67.9344+33.9671j  69.4627+34.7314j     0.0000+0.0000j
738         60.9048+29.9689j  62.5092+30.7585j     0.0000+0.0000j
728         41.6330+20.8165j  41.7730+20.8865j   41.7167+20.8583j
729         20.8169+10.4084j  20.8868+10.4434j     0.0000+0.0000j
799r          0.0000+0.0000j    0.0000+0.0000j     0.0000+0.0000j
799           0.0000+0.0000j    0.0000+0.0000j     0.0000+0.0000j
775           0.0000+0.0000j    0.0000+0.0000j     0.0000+0.0000j


COMPARE TOTAL NODE POWERS - SUM OVER PHASE

Max |diff|:
3.164977038544256
A    1.2534+0.6349j
B   -0.0030-0.0014j
C    2.8522+1.3718j
dtype: complex128 

FBS results
A   900.9102+439.5624j
B   679.2737+333.6707j
C   859.3365+419.2451j
dtype: complex128 

DSS results
A   899.6568+438.9275j
B   679.2767+333.6722j
C   856.4843+417.8732j
dtype: complex128
F

=================================== FAILURES ===================================
___________________________________ test_all ___________________________________

    def test_all():
        """
        Compare the python FBS solution to the opendss solution.
        To save output, run from command line:
        pytest ./fbs/tests/test_compare_opendss.py -s >[OUTPUT FILE PATH]
        Examples:
        $ pytest ./fbs/tests/test_compare_opendss.py -s > ./fbs/tests/06n3ph_unbal/06n3ph_out.txt
        $ pytest ./fbs/tests/test_compare_opendss.py -s > ./fbs/tests/05n3ph_unbal/05n3ph_out.txt
        """
        tolerance = 10**-1
        for file in dss_files:
            print(f'\n\nTesting File: {file}')
>           compare_fbs_sol(file, tolerance)

fbs/tests/test_compare_opendss.py:45: 
_ _ _ _ _ _ _ _ _ _ _ _ _ _ _ _ _ _ _ _ _ _ _ _ _ _ _ _ _ _ _ _ _ _ _ _ _ _ _ _ 

dss_file = '/Users/elainelaguerta/Dropbox/LBNL/python-powerflow/IEEE_37_feeder_UB/IEEE_37_Bus_allwye_noxfm_noreg.dss'
tolerance = 0.1

    def compare_fbs_sol(dss_file, tolerance):
        # TODO: Figure out how to get Inode (iNR) and sV (sNR) at each node from dss and perform a compare
        # solve with fbs
        network = init_from_dss(dss_file)
        fbs_sol = get_fbs_solution(fbs(network))
    
        # solve with dss
        dss_sol = solve_with_dss(dss_file)
    
        fbsV, fbsI, fbsStx, fbsSrx, fbs_sV = fbs_sol.V_df(), fbs_sol.I_df(), fbs_sol.Stx_df(), \
            fbs_sol.Srx_df(), fbs_sol.sV_df()
        dssV, dssI, dssStx, dssSrx, dssLoads, dss = dss_sol
        dssVMag = getVMag(dss)
        fbsVMag = fbs_sol.VMag_df()
        print(f"FBS iterations: {fbs_sol.iterations}\t FBS convergence:{fbs_sol.diff}\t FBS tolerance: {fbs_sol.tolerance}")
        print("\n\nCOMPARE V")
        V_maxDiff = compare_dfs(fbsV, dssV)
        print("\n\nCOMPARE VMag (LN)")
        VMag_maxDiff = compare_dfs(fbsVMag, dssVMag)
        print("\n\nCOMPARE I")
        I_maxDiff = compare_dfs(fbsI, dssI)
        print("\n\nCOMPARE Stx")
        Stx_maxDiff = compare_dfs(fbsStx, dssStx)
        print("\n\nCOMPARE Srx")
        Srx_maxDiff = compare_dfs(fbsSrx, dssSrx)
    
        print("\n\nCOMPARE TOTAL NODE POWERS\n")
        fbsLoads = fbs_sV.multiply(1000)
    
        loads_maxDiff = compare_dfs(fbsLoads, dssLoads)
    
        print("\n\nCOMPARE TOTAL NODE POWERS - SUM OVER PHASE\n")
        fbsLoads_sumPhase = fbsLoads.sum(axis = 0)
        dssLoads_sumPhase = dssLoads.sum(axis = 0)
        sumPhase_maxDiff = compare_dfs(fbsLoads_sumPhase, dssLoads_sumPhase)
    
        assert (V_maxDiff <= tolerance).all()
>       assert (VMag_maxDiff <= tolerance).all()
E       assert False
E        +  where False = <bound method Series.all of A.(fbs - dss)    False\nB.(fbs - dss)    False\nC.(fbs - dss)    False\ndtype: bool>()
E        +    where <bound method Series.all of A.(fbs - dss)    False\nB.(fbs - dss)    False\nC.(fbs - dss)    False\ndtype: bool> = A.(fbs - dss)   2.3342\nB.(fbs - dss)   0.4641\nC.(fbs - dss)   0.6716\ndtype: float64 <= 0.1.all

fbs/tests/test_compare_opendss.py:86: AssertionError
=============================== warnings summary ===============================
tests/test_compare_opendss.py::test_all
  /Users/elainelaguerta/Dropbox/LBNL/OpenDSSDirect.py/opendssdirect/utils.py:71: UserWarning: Empty list (opendssdirect.Capacitors)
    warnings.warn("Empty list ({class_name})".format(class_name=class_name))

tests/test_compare_opendss.py::test_all
  /Users/elainelaguerta/Dropbox/LBNL/OpenDSSDirect.py/opendssdirect/utils.py:71: UserWarning: Empty list (opendssdirect.Transformers)
    warnings.warn("Empty list ({class_name})".format(class_name=class_name))

-- Docs: https://docs.pytest.org/en/stable/warnings.html
=========================== short test summary info ============================
FAILED fbs/tests/test_compare_opendss.py::test_all - assert False
======================== 1 failed, 2 warnings in 1.10s =========================
